@<TRIPOS>MOLECULE
ML1
 33 34 0 0 0
SMALL
GASTEIGER

@<TRIPOS>ATOM
      1 C           2.2900    0.2850   -0.0450 C.3     1  LIG1        0.0156
      2 C          -0.0890    2.6850    0.1100 C.ar    1  LIG1        0.0060
      3 C          -4.3870   -2.7660   -0.0620 C.3     1  LIG1        0.0788
      4 C           4.4510   -0.8130   -0.2930 C.2     1  LIG1        0.2099
      5 C           5.7410   -1.3390    0.2820 C.3     1  LIG1        0.0121
      6 C           1.4460    0.8980    1.0740 C.3     1  LIG1       -0.0101
      7 C          -1.0690    0.6560    0.2610 C.ar    1  LIG1        0.0063
      8 C          -1.4290   -0.6790    0.4580 C.ar    1  LIG1       -0.0105
      9 C          -3.2790    1.1240   -0.5960 C.ar    1  LIG1       -0.0343
     10 C          -2.0010    1.5650   -0.2710 C.ar    1  LIG1        0.0470
     11 C           0.1560    1.4240    0.5000 C.ar    1  LIG1       -0.0208
     12 C          -2.7000   -1.0990    0.1200 C.ar    1  LIG1        0.1208
     13 C          -3.6180   -0.1990   -0.4160 C.ar    1  LIG1       -0.0180
     14 N           3.5440   -0.2260    0.5130 N.am    1  LIG1       -0.3152
     15 N          -1.3720    2.7890   -0.3530 N.ar    1  LIG1       -0.3604
     16 O          -3.0570   -2.3980    0.3100 O.3     1  LIG1       -0.4951
     17 O           4.2290   -0.9180   -1.4800 O.2     1  LIG1       -0.2761
     18 H           1.7390   -0.5330   -0.5100 H       1  LIG1        0.0465
     19 H           2.5090    1.0470   -0.7930 H       1  LIG1        0.0465
     20 H           0.6200    3.4980    0.1590 H       1  LIG1        0.0810
     21 H          -4.5400   -3.8260    0.1410 H       1  LIG1        0.0660
     22 H          -5.1010   -2.1780    0.5150 H       1  LIG1        0.0660
     23 H          -4.5330   -2.5750   -1.1250 H       1  LIG1        0.0660
     24 H           5.6080   -2.3780    0.5840 H       1  LIG1        0.0322
     25 H           6.5260   -1.2780   -0.4720 H       1  LIG1        0.0322
     26 H           6.0230   -0.7420    1.1490 H       1  LIG1        0.0322
     27 H           1.2270    0.1360    1.8220 H       1  LIG1        0.0329
     28 H           1.9970    1.7160    1.5390 H       1  LIG1        0.0329
     29 H          -0.7190   -1.3780    0.8730 H       1  LIG1        0.0661
     30 H          -3.9990    1.8130   -1.0120 H       1  LIG1        0.0639
     31 H          -4.6120   -0.5360   -0.6700 H       1  LIG1        0.0655
     32 H           3.7220   -0.1420    1.4630 H       1  LIG1        0.1487
     33 H          -1.7800    3.6040   -0.6860 H       1  LIG1        0.1653
@<TRIPOS>BOND
     1     1     6    1
     2     1    14    1
     3     1    18    1
     4     1    19    1
     5     2    11   ar
     6     2    20    1
     7     3    21    1
     8     3    22    1
     9     3    23    1
    10     4    14   am
    11     5     4    1
    12     5    24    1
    13     5    25    1
    14     5    26    1
    15     6    27    1
    16     6    28    1
    17     7     8   ar
    18     7    11   ar
    19     8    29    1
    20     9    13   ar
    21     9    10   ar
    22     9    30    1
    23    10     7   ar
    24    11     6    1
    25    12    16    1
    26    12     8   ar
    27    13    12   ar
    28    13    31    1
    29    14    32    1
    30    15    10   ar
    31    15     2   ar
    32    15    33    1
    33    16     3    1
    34    17     4    2
